<nodes> 
<node id="n0" x = "0" y="0" /> 
<node id="n1" x = "-500" y="0" type="priority"/> 
<node id="n2" x = "-200" y="0" type="traffic_light"/>
<node id="n3" x = "200" y="0" type="traffic_light"/>
<node id="n4" x = "-200" y="500" /> 
<node id="n5" x = "200" y="500" /> 
<node id="n6" x ="-200" y="-500"/>
<node id="n7" x ="200" y="-500"/>
<node id="n8" x ="500" y="0"/>
</nodes>
