<routes>
        <vType id="typeWE" accel="0.8" decel="4.5" sigma="0.5" length="5" minGap="2.5" maxSpeed="16.67" guiShape="passenger"/>
        <vType id="typeNS" accel="0.8" decel="4.5" sigma="0.5" length="7" minGap="3" maxSpeed="25" guiShape="bus"/>

        <route id="route0" edges="1to2 2to0 0to3 3to8 "/>
        <route id="route1" edges="8to3 3to0 0to2 2to1 "/> 
        <route id="route2" edges="4to2 2to6 "/> 
        <route id="route3" edges="6to2 2to4"/>  
        <route id="route4" edges="5to3 3to7"/>
        <route id="route5" edges="7to3 3to5"/>
    <vehicle id="left_0" type="typeWE" route="route1" depart="0" />
    <vehicle id="left_1" type="typeWE" route="route1" depart="1" />
    <vehicle id="right_2" type="typeWE" route="route3" depart="1" />
    <vehicle id="right_3" type="typeWE" route="route0" depart="2" />
    <vehicle id="left_4" type="typeWE" route="route1" depart="3" />
    <vehicle id="right_5" type="typeWE" route="route3" depart="4" />
    <vehicle id="right_6" type="typeWE" route="route5" depart="6" />
    <vehicle id="left_7" type="typeWE" route="route1" depart="11" />
    <vehicle id="right_8" type="typeWE" route="route4" depart="14" />
    <vehicle id="right_9" type="typeWE" route="route5" depart="14" />
    <vehicle id="right_10" type="typeWE" route="route4" depart="15" />
    <vehicle id="right_11" type="typeWE" route="route4" depart="16" />
    <vehicle id="right_12" type="typeWE" route="route4" depart="20" />
    <vehicle id="right_13" type="typeWE" route="route0" depart="21" />
    <vehicle id="right_14" type="typeWE" route="route5" depart="21" />
    <vehicle id="right_15" type="typeWE" route="route4" depart="22" />
    <vehicle id="right_16" type="typeWE" route="route4" depart="26" />
    <vehicle id="right_17" type="typeWE" route="route3" depart="27" />
    <vehicle id="right_18" type="typeWE" route="route3" depart="30" />
    <vehicle id="right_19" type="typeWE" route="route5" depart="32" />
    <vehicle id="right_20" type="typeWE" route="route3" depart="34" />
    <vehicle id="right_21" type="typeWE" route="route0" depart="42" />
    <vehicle id="right_22" type="typeWE" route="route4" depart="42" />
    <vehicle id="right_23" type="typeWE" route="route5" depart="44" />
    <vehicle id="right_24" type="typeWE" route="route5" depart="47" />
    <vehicle id="down_25" type="typeNS" route="route2" depart="48" color="1,0,0"/>
    <vehicle id="right_26" type="typeWE" route="route3" depart="49" />
    <vehicle id="right_27" type="typeWE" route="route4" depart="49" />
    <vehicle id="right_28" type="typeWE" route="route0" depart="54" />
    <vehicle id="right_29" type="typeWE" route="route0" depart="57" />
    <vehicle id="down_30" type="typeNS" route="route2" depart="61" color="1,0,0"/>
    <vehicle id="right_31" type="typeWE" route="route3" depart="62" />
    <vehicle id="right_32" type="typeWE" route="route4" depart="65" />
    <vehicle id="right_33" type="typeWE" route="route4" depart="67" />
    <vehicle id="left_34" type="typeWE" route="route1" depart="69" />
    <vehicle id="right_35" type="typeWE" route="route5" depart="69" />
    <vehicle id="left_36" type="typeWE" route="route1" depart="71" />
    <vehicle id="right_37" type="typeWE" route="route3" depart="72" />
    <vehicle id="right_38" type="typeWE" route="route4" depart="76" />
    <vehicle id="left_39" type="typeWE" route="route1" depart="78" />
    <vehicle id="left_40" type="typeWE" route="route1" depart="80" />
    <vehicle id="left_41" type="typeWE" route="route1" depart="82" />
    <vehicle id="right_42" type="typeWE" route="route3" depart="83" />
    <vehicle id="right_43" type="typeWE" route="route0" depart="84" />
    <vehicle id="right_44" type="typeWE" route="route4" depart="84" />
    <vehicle id="left_45" type="typeWE" route="route1" depart="86" />
    <vehicle id="down_46" type="typeNS" route="route2" depart="86" color="1,0,0"/>
    <vehicle id="right_47" type="typeWE" route="route0" depart="88" />
    <vehicle id="right_48" type="typeWE" route="route3" depart="90" />
    <vehicle id="right_49" type="typeWE" route="route3" depart="91" />
    <vehicle id="left_50" type="typeWE" route="route1" depart="97" />
    <vehicle id="left_51" type="typeWE" route="route1" depart="98" />
    <vehicle id="right_52" type="typeWE" route="route4" depart="99" />
    <vehicle id="right_53" type="typeWE" route="route0" depart="100" />
    <vehicle id="left_54" type="typeWE" route="route1" depart="106" />
    <vehicle id="right_55" type="typeWE" route="route3" depart="108" />
    <vehicle id="right_56" type="typeWE" route="route4" depart="109" />
    <vehicle id="right_57" type="typeWE" route="route5" depart="113" />
    <vehicle id="right_58" type="typeWE" route="route0" depart="114" />
    <vehicle id="left_59" type="typeWE" route="route1" depart="117" />
    <vehicle id="left_60" type="typeWE" route="route1" depart="119" />
    <vehicle id="right_61" type="typeWE" route="route0" depart="120" />
    <vehicle id="right_62" type="typeWE" route="route5" depart="122" />
    <vehicle id="left_63" type="typeWE" route="route1" depart="136" />
    <vehicle id="right_64" type="typeWE" route="route4" depart="137" />
    <vehicle id="right_65" type="typeWE" route="route5" depart="141" />
    <vehicle id="right_66" type="typeWE" route="route0" depart="142" />
    <vehicle id="right_67" type="typeWE" route="route0" depart="143" />
    <vehicle id="right_68" type="typeWE" route="route0" depart="144" />
    <vehicle id="right_69" type="typeWE" route="route3" depart="145" />
    <vehicle id="right_70" type="typeWE" route="route0" depart="147" />
    <vehicle id="right_71" type="typeWE" route="route5" depart="154" />
    <vehicle id="down_72" type="typeNS" route="route2" depart="159" color="1,0,0"/>
    <vehicle id="right_73" type="typeWE" route="route0" depart="161" />
    <vehicle id="right_74" type="typeWE" route="route5" depart="161" />
    <vehicle id="right_75" type="typeWE" route="route5" depart="165" />
    <vehicle id="right_76" type="typeWE" route="route4" depart="166" />
    <vehicle id="right_77" type="typeWE" route="route5" depart="168" />
    <vehicle id="right_78" type="typeWE" route="route4" depart="169" />
    <vehicle id="right_79" type="typeWE" route="route0" depart="171" />
    <vehicle id="left_80" type="typeWE" route="route1" depart="172" />
    <vehicle id="down_81" type="typeNS" route="route2" depart="172" color="1,0,0"/>
    <vehicle id="left_82" type="typeWE" route="route1" depart="173" />
    <vehicle id="right_83" type="typeWE" route="route5" depart="174" />
    <vehicle id="right_84" type="typeWE" route="route5" depart="175" />
    <vehicle id="right_85" type="typeWE" route="route5" depart="176" />
    <vehicle id="right_86" type="typeWE" route="route0" depart="177" />
    <vehicle id="right_87" type="typeWE" route="route5" depart="178" />
    <vehicle id="right_88" type="typeWE" route="route5" depart="180" />
    <vehicle id="right_89" type="typeWE" route="route5" depart="181" />
    <vehicle id="right_90" type="typeWE" route="route3" depart="187" />
    <vehicle id="right_91" type="typeWE" route="route5" depart="188" />
    <vehicle id="right_92" type="typeWE" route="route5" depart="189" />
    <vehicle id="right_93" type="typeWE" route="route3" depart="191" />
    <vehicle id="left_94" type="typeWE" route="route1" depart="194" />
    <vehicle id="right_95" type="typeWE" route="route4" depart="194" />
    <vehicle id="right_96" type="typeWE" route="route4" depart="195" />
    <vehicle id="right_97" type="typeWE" route="route0" depart="197" />
    <vehicle id="right_98" type="typeWE" route="route3" depart="197" />
    <vehicle id="right_99" type="typeWE" route="route5" depart="198" />
    <vehicle id="right_100" type="typeWE" route="route5" depart="199" />
    <vehicle id="right_101" type="typeWE" route="route0" depart="206" />
    <vehicle id="right_102" type="typeWE" route="route4" depart="206" />
    <vehicle id="right_103" type="typeWE" route="route4" depart="207" />
    <vehicle id="left_104" type="typeWE" route="route1" depart="210" />
    <vehicle id="right_105" type="typeWE" route="route3" depart="213" />
    <vehicle id="right_106" type="typeWE" route="route5" depart="228" />
    <vehicle id="right_107" type="typeWE" route="route0" depart="229" />
    <vehicle id="right_108" type="typeWE" route="route5" depart="229" />
    <vehicle id="right_109" type="typeWE" route="route5" depart="231" />
    <vehicle id="right_110" type="typeWE" route="route0" depart="232" />
    <vehicle id="right_111" type="typeWE" route="route3" depart="233" />
    <vehicle id="right_112" type="typeWE" route="route4" depart="234" />
    <vehicle id="left_113" type="typeWE" route="route1" depart="236" />
    <vehicle id="right_114" type="typeWE" route="route3" depart="236" />
    <vehicle id="left_115" type="typeWE" route="route1" depart="238" />
    <vehicle id="right_116" type="typeWE" route="route3" depart="239" />
    <vehicle id="right_117" type="typeWE" route="route0" depart="241" />
    <vehicle id="right_118" type="typeWE" route="route4" depart="241" />
    <vehicle id="right_119" type="typeWE" route="route0" depart="242" />
    <vehicle id="left_120" type="typeWE" route="route1" depart="246" />
    <vehicle id="right_121" type="typeWE" route="route0" depart="247" />
    <vehicle id="left_122" type="typeWE" route="route1" depart="248" />
    <vehicle id="right_123" type="typeWE" route="route5" depart="250" />
    <vehicle id="right_124" type="typeWE" route="route0" depart="251" />
    <vehicle id="left_125" type="typeWE" route="route1" depart="257" />
    <vehicle id="down_126" type="typeNS" route="route2" depart="259" color="1,0,0"/>
    <vehicle id="right_127" type="typeWE" route="route3" depart="261" />
    <vehicle id="right_128" type="typeWE" route="route4" depart="263" />
    <vehicle id="right_129" type="typeWE" route="route0" depart="268" />
    <vehicle id="left_130" type="typeWE" route="route1" depart="268" />
    <vehicle id="right_131" type="typeWE" route="route4" depart="270" />
    <vehicle id="right_132" type="typeWE" route="route5" depart="270" />
    <vehicle id="right_133" type="typeWE" route="route4" depart="273" />
    <vehicle id="left_134" type="typeWE" route="route1" depart="276" />
    <vehicle id="left_135" type="typeWE" route="route1" depart="277" />
    <vehicle id="right_136" type="typeWE" route="route5" depart="279" />
    <vehicle id="right_137" type="typeWE" route="route3" depart="282" />
    <vehicle id="right_138" type="typeWE" route="route5" depart="286" />
    <vehicle id="left_139" type="typeWE" route="route1" depart="289" />
    <vehicle id="right_140" type="typeWE" route="route4" depart="289" />
    <vehicle id="left_141" type="typeWE" route="route1" depart="291" />
    <vehicle id="left_142" type="typeWE" route="route1" depart="301" />
    <vehicle id="left_143" type="typeWE" route="route1" depart="303" />
    <vehicle id="right_144" type="typeWE" route="route0" depart="306" />
    <vehicle id="down_145" type="typeNS" route="route2" depart="312" color="1,0,0"/>
    <vehicle id="right_146" type="typeWE" route="route5" depart="312" />
    <vehicle id="left_147" type="typeWE" route="route1" depart="317" />
    <vehicle id="right_148" type="typeWE" route="route4" depart="317" />
    <vehicle id="right_149" type="typeWE" route="route0" depart="318" />
    <vehicle id="right_150" type="typeWE" route="route4" depart="319" />
    <vehicle id="right_151" type="typeWE" route="route4" depart="320" />
    <vehicle id="right_152" type="typeWE" route="route0" depart="322" />
    <vehicle id="right_153" type="typeWE" route="route5" depart="322" />
    <vehicle id="left_154" type="typeWE" route="route1" depart="323" />
    <vehicle id="right_155" type="typeWE" route="route5" depart="326" />
    <vehicle id="right_156" type="typeWE" route="route0" depart="327" />
    <vehicle id="right_157" type="typeWE" route="route4" depart="329" />
    <vehicle id="left_158" type="typeWE" route="route1" depart="330" />
    <vehicle id="right_159" type="typeWE" route="route4" depart="330" />
    <vehicle id="right_160" type="typeWE" route="route4" depart="331" />
    <vehicle id="right_161" type="typeWE" route="route0" depart="334" />
    <vehicle id="right_162" type="typeWE" route="route4" depart="341" />
    <vehicle id="right_163" type="typeWE" route="route4" depart="344" />
    <vehicle id="right_164" type="typeWE" route="route3" depart="350" />
    <vehicle id="right_165" type="typeWE" route="route0" depart="352" />
    <vehicle id="down_166" type="typeNS" route="route2" depart="353" color="1,0,0"/>
    <vehicle id="right_167" type="typeWE" route="route4" depart="353" />
    <vehicle id="down_168" type="typeNS" route="route2" depart="354" color="1,0,0"/>
    <vehicle id="right_169" type="typeWE" route="route4" depart="358" />
    <vehicle id="right_170" type="typeWE" route="route5" depart="358" />
    <vehicle id="right_171" type="typeWE" route="route0" depart="360" />
    <vehicle id="left_172" type="typeWE" route="route1" depart="361" />
    <vehicle id="right_173" type="typeWE" route="route0" depart="362" />
    <vehicle id="right_174" type="typeWE" route="route3" depart="365" />
    <vehicle id="right_175" type="typeWE" route="route5" depart="366" />
    <vehicle id="right_176" type="typeWE" route="route0" depart="369" />
    <vehicle id="left_177" type="typeWE" route="route1" depart="370" />
    <vehicle id="right_178" type="typeWE" route="route4" depart="371" />
    <vehicle id="right_179" type="typeWE" route="route0" depart="372" />
    <vehicle id="right_180" type="typeWE" route="route0" depart="373" />
    <vehicle id="right_181" type="typeWE" route="route4" depart="374" />
    <vehicle id="left_182" type="typeWE" route="route1" depart="384" />
    <vehicle id="left_183" type="typeWE" route="route1" depart="387" />
    <vehicle id="down_184" type="typeNS" route="route2" depart="388" color="1,0,0"/>
    <vehicle id="down_185" type="typeNS" route="route2" depart="390" color="1,0,0"/>
    <vehicle id="right_186" type="typeWE" route="route5" depart="395" />
    <vehicle id="right_187" type="typeWE" route="route4" depart="400" />
    <vehicle id="right_188" type="typeWE" route="route0" depart="404" />
    <vehicle id="down_189" type="typeNS" route="route2" depart="404" color="1,0,0"/>
    <vehicle id="right_190" type="typeWE" route="route0" depart="406" />
    <vehicle id="left_191" type="typeWE" route="route1" depart="406" />
    <vehicle id="right_192" type="typeWE" route="route5" depart="408" />
    <vehicle id="right_193" type="typeWE" route="route0" depart="413" />
    <vehicle id="right_194" type="typeWE" route="route5" depart="414" />
    <vehicle id="down_195" type="typeNS" route="route2" depart="419" color="1,0,0"/>
    <vehicle id="right_196" type="typeWE" route="route3" depart="420" />
    <vehicle id="right_197" type="typeWE" route="route4" depart="422" />
    <vehicle id="right_198" type="typeWE" route="route5" depart="422" />
    <vehicle id="right_199" type="typeWE" route="route5" depart="423" />
    <vehicle id="left_200" type="typeWE" route="route1" depart="427" />
    <vehicle id="right_201" type="typeWE" route="route0" depart="428" />
    <vehicle id="right_202" type="typeWE" route="route0" depart="429" />
    <vehicle id="left_203" type="typeWE" route="route1" depart="431" />
    <vehicle id="right_204" type="typeWE" route="route4" depart="432" />
    <vehicle id="left_205" type="typeWE" route="route1" depart="434" />
    <vehicle id="right_206" type="typeWE" route="route3" depart="439" />
    <vehicle id="right_207" type="typeWE" route="route4" depart="439" />
    <vehicle id="right_208" type="typeWE" route="route0" depart="440" />
    <vehicle id="left_209" type="typeWE" route="route1" depart="440" />
    <vehicle id="right_210" type="typeWE" route="route3" depart="443" />
    <vehicle id="left_211" type="typeWE" route="route1" depart="444" />
    <vehicle id="right_212" type="typeWE" route="route5" depart="447" />
    <vehicle id="right_213" type="typeWE" route="route5" depart="448" />
    <vehicle id="right_214" type="typeWE" route="route5" depart="450" />
    <vehicle id="right_215" type="typeWE" route="route3" depart="453" />
    <vehicle id="right_216" type="typeWE" route="route5" depart="454" />
    <vehicle id="right_217" type="typeWE" route="route5" depart="455" />
    <vehicle id="right_218" type="typeWE" route="route0" depart="458" />
    <vehicle id="left_219" type="typeWE" route="route1" depart="459" />
    <vehicle id="right_220" type="typeWE" route="route3" depart="460" />
    <vehicle id="right_221" type="typeWE" route="route0" depart="461" />
    <vehicle id="left_222" type="typeWE" route="route1" depart="462" />
    <vehicle id="right_223" type="typeWE" route="route5" depart="462" />
    <vehicle id="right_224" type="typeWE" route="route5" depart="464" />
    <vehicle id="right_225" type="typeWE" route="route5" depart="467" />
    <vehicle id="right_226" type="typeWE" route="route3" depart="469" />
    <vehicle id="right_227" type="typeWE" route="route5" depart="470" />
    <vehicle id="right_228" type="typeWE" route="route4" depart="472" />
    <vehicle id="right_229" type="typeWE" route="route5" depart="472" />
    <vehicle id="right_230" type="typeWE" route="route0" depart="474" />
    <vehicle id="right_231" type="typeWE" route="route0" depart="475" />
    <vehicle id="left_232" type="typeWE" route="route1" depart="476" />
    <vehicle id="left_233" type="typeWE" route="route1" depart="477" />
    <vehicle id="right_234" type="typeWE" route="route5" depart="480" />
    <vehicle id="right_235" type="typeWE" route="route4" depart="482" />
    <vehicle id="right_236" type="typeWE" route="route5" depart="484" />
    <vehicle id="right_237" type="typeWE" route="route4" depart="486" />
    <vehicle id="down_238" type="typeNS" route="route2" depart="487" color="1,0,0"/>
    <vehicle id="right_239" type="typeWE" route="route4" depart="488" />
    <vehicle id="right_240" type="typeWE" route="route3" depart="494" />
    <vehicle id="right_241" type="typeWE" route="route4" depart="496" />
    <vehicle id="right_242" type="typeWE" route="route5" depart="497" />
    <vehicle id="down_243" type="typeNS" route="route2" depart="498" color="1,0,0"/>
    <vehicle id="right_244" type="typeWE" route="route4" depart="500" />
    <vehicle id="right_245" type="typeWE" route="route3" depart="501" />
    <vehicle id="right_246" type="typeWE" route="route3" depart="502" />
    <vehicle id="left_247" type="typeWE" route="route1" depart="503" />
    <vehicle id="right_248" type="typeWE" route="route3" depart="505" />
    <vehicle id="left_249" type="typeWE" route="route1" depart="507" />
    <vehicle id="right_250" type="typeWE" route="route4" depart="507" />
    <vehicle id="right_251" type="typeWE" route="route4" depart="508" />
    <vehicle id="right_252" type="typeWE" route="route5" depart="510" />
    <vehicle id="left_253" type="typeWE" route="route1" depart="513" />
    <vehicle id="left_254" type="typeWE" route="route1" depart="517" />
    <vehicle id="right_255" type="typeWE" route="route3" depart="521" />
    <vehicle id="right_256" type="typeWE" route="route3" depart="523" />
    <vehicle id="right_257" type="typeWE" route="route3" depart="524" />
    <vehicle id="down_258" type="typeNS" route="route2" depart="528" color="1,0,0"/>
    <vehicle id="right_259" type="typeWE" route="route3" depart="530" />
    <vehicle id="right_260" type="typeWE" route="route0" depart="534" />
    <vehicle id="right_261" type="typeWE" route="route3" depart="534" />
    <vehicle id="left_262" type="typeWE" route="route1" depart="535" />
    <vehicle id="right_263" type="typeWE" route="route0" depart="539" />
    <vehicle id="right_264" type="typeWE" route="route4" depart="542" />
    <vehicle id="right_265" type="typeWE" route="route3" depart="546" />
    <vehicle id="right_266" type="typeWE" route="route4" depart="548" />
    <vehicle id="right_267" type="typeWE" route="route4" depart="549" />
    <vehicle id="left_268" type="typeWE" route="route1" depart="552" />
    <vehicle id="right_269" type="typeWE" route="route5" depart="554" />
    <vehicle id="right_270" type="typeWE" route="route5" depart="560" />
    <vehicle id="right_271" type="typeWE" route="route3" depart="561" />
    <vehicle id="left_272" type="typeWE" route="route1" depart="562" />
    <vehicle id="right_273" type="typeWE" route="route5" depart="566" />
    <vehicle id="right_274" type="typeWE" route="route4" depart="567" />
    <vehicle id="right_275" type="typeWE" route="route4" depart="568" />
    <vehicle id="right_276" type="typeWE" route="route3" depart="570" />
    <vehicle id="right_277" type="typeWE" route="route4" depart="571" />
    <vehicle id="right_278" type="typeWE" route="route0" depart="573" />
    <vehicle id="left_279" type="typeWE" route="route1" depart="575" />
    <vehicle id="right_280" type="typeWE" route="route5" depart="576" />
    <vehicle id="left_281" type="typeWE" route="route1" depart="578" />
    <vehicle id="right_282" type="typeWE" route="route5" depart="581" />
    <vehicle id="right_283" type="typeWE" route="route5" depart="582" />
    <vehicle id="right_284" type="typeWE" route="route3" depart="583" />
    <vehicle id="left_285" type="typeWE" route="route1" depart="586" />
    <vehicle id="right_286" type="typeWE" route="route5" depart="587" />
    <vehicle id="right_287" type="typeWE" route="route4" depart="590" />
    <vehicle id="right_288" type="typeWE" route="route5" depart="594" />
    <vehicle id="right_289" type="typeWE" route="route0" depart="604" />
    <vehicle id="right_290" type="typeWE" route="route0" depart="606" />
    <vehicle id="left_291" type="typeWE" route="route1" depart="609" />
    <vehicle id="left_292" type="typeWE" route="route1" depart="616" />
    <vehicle id="right_293" type="typeWE" route="route5" depart="616" />
    <vehicle id="right_294" type="typeWE" route="route4" depart="618" />
    <vehicle id="right_295" type="typeWE" route="route5" depart="621" />
    <vehicle id="left_296" type="typeWE" route="route1" depart="623" />
    <vehicle id="right_297" type="typeWE" route="route0" depart="626" />
    <vehicle id="left_298" type="typeWE" route="route1" depart="626" />
    <vehicle id="right_299" type="typeWE" route="route4" depart="627" />
    <vehicle id="right_300" type="typeWE" route="route0" depart="629" />
    <vehicle id="right_301" type="typeWE" route="route5" depart="629" />
    <vehicle id="right_302" type="typeWE" route="route3" depart="633" />
    <vehicle id="right_303" type="typeWE" route="route3" depart="637" />
    <vehicle id="right_304" type="typeWE" route="route4" depart="637" />
    <vehicle id="right_305" type="typeWE" route="route4" depart="640" />
    <vehicle id="left_306" type="typeWE" route="route1" depart="644" />
    <vehicle id="right_307" type="typeWE" route="route3" depart="644" />
    <vehicle id="right_308" type="typeWE" route="route5" depart="644" />
    <vehicle id="right_309" type="typeWE" route="route4" depart="650" />
    <vehicle id="right_310" type="typeWE" route="route0" depart="651" />
    <vehicle id="right_311" type="typeWE" route="route0" depart="652" />
    <vehicle id="right_312" type="typeWE" route="route5" depart="658" />
    <vehicle id="right_313" type="typeWE" route="route0" depart="659" />
    <vehicle id="right_314" type="typeWE" route="route4" depart="659" />
    <vehicle id="right_315" type="typeWE" route="route0" depart="660" />
    <vehicle id="right_316" type="typeWE" route="route0" depart="661" />
    <vehicle id="right_317" type="typeWE" route="route4" depart="661" />
    <vehicle id="right_318" type="typeWE" route="route4" depart="665" />
    <vehicle id="left_319" type="typeWE" route="route1" depart="666" />
    <vehicle id="right_320" type="typeWE" route="route0" depart="670" />
    <vehicle id="left_321" type="typeWE" route="route1" depart="672" />
    <vehicle id="right_322" type="typeWE" route="route3" depart="678" />
    <vehicle id="right_323" type="typeWE" route="route4" depart="678" />
    <vehicle id="right_324" type="typeWE" route="route4" depart="679" />
    <vehicle id="right_325" type="typeWE" route="route5" depart="679" />
    <vehicle id="left_326" type="typeWE" route="route1" depart="683" />
    <vehicle id="right_327" type="typeWE" route="route3" depart="683" />
    <vehicle id="right_328" type="typeWE" route="route0" depart="685" />
    <vehicle id="left_329" type="typeWE" route="route1" depart="685" />
    <vehicle id="right_330" type="typeWE" route="route3" depart="687" />
    <vehicle id="down_331" type="typeNS" route="route2" depart="690" color="1,0,0"/>
    <vehicle id="right_332" type="typeWE" route="route4" depart="690" />
    <vehicle id="right_333" type="typeWE" route="route0" depart="692" />
    <vehicle id="right_334" type="typeWE" route="route3" depart="692" />
    <vehicle id="right_335" type="typeWE" route="route0" depart="693" />
    <vehicle id="left_336" type="typeWE" route="route1" depart="697" />
    <vehicle id="down_337" type="typeNS" route="route2" depart="701" color="1,0,0"/>
    <vehicle id="right_338" type="typeWE" route="route5" depart="704" />
    <vehicle id="right_339" type="typeWE" route="route0" depart="710" />
    <vehicle id="right_340" type="typeWE" route="route0" depart="714" />
    <vehicle id="right_341" type="typeWE" route="route3" depart="716" />
    <vehicle id="right_342" type="typeWE" route="route5" depart="717" />
    <vehicle id="down_343" type="typeNS" route="route2" depart="718" color="1,0,0"/>
    <vehicle id="right_344" type="typeWE" route="route5" depart="718" />
    <vehicle id="right_345" type="typeWE" route="route4" depart="720" />
    <vehicle id="right_346" type="typeWE" route="route0" depart="725" />
    <vehicle id="right_347" type="typeWE" route="route5" depart="725" />
    <vehicle id="right_348" type="typeWE" route="route3" depart="726" />
    <vehicle id="left_349" type="typeWE" route="route1" depart="727" />
    <vehicle id="right_350" type="typeWE" route="route5" depart="731" />
    <vehicle id="right_351" type="typeWE" route="route0" depart="732" />
    <vehicle id="left_352" type="typeWE" route="route1" depart="735" />
    <vehicle id="right_353" type="typeWE" route="route3" depart="735" />
    <vehicle id="right_354" type="typeWE" route="route3" depart="737" />
    <vehicle id="left_355" type="typeWE" route="route1" depart="739" />
    <vehicle id="right_356" type="typeWE" route="route5" depart="741" />
    <vehicle id="right_357" type="typeWE" route="route0" depart="742" />
    <vehicle id="right_358" type="typeWE" route="route5" depart="742" />
    <vehicle id="right_359" type="typeWE" route="route0" depart="744" />
    <vehicle id="right_360" type="typeWE" route="route4" depart="748" />
    <vehicle id="right_361" type="typeWE" route="route3" depart="749" />
    <vehicle id="left_362" type="typeWE" route="route1" depart="750" />
    <vehicle id="right_363" type="typeWE" route="route5" depart="752" />
    <vehicle id="right_364" type="typeWE" route="route5" depart="753" />
    <vehicle id="left_365" type="typeWE" route="route1" depart="756" />
    <vehicle id="right_366" type="typeWE" route="route3" depart="756" />
    <vehicle id="right_367" type="typeWE" route="route5" depart="757" />
    <vehicle id="right_368" type="typeWE" route="route0" depart="758" />
    <vehicle id="right_369" type="typeWE" route="route4" depart="758" />
    <vehicle id="right_370" type="typeWE" route="route5" depart="766" />
    <vehicle id="left_371" type="typeWE" route="route1" depart="768" />
    <vehicle id="right_372" type="typeWE" route="route5" depart="771" />
    <vehicle id="right_373" type="typeWE" route="route0" depart="772" />
    <vehicle id="right_374" type="typeWE" route="route4" depart="773" />
    <vehicle id="left_375" type="typeWE" route="route1" depart="775" />
    <vehicle id="right_376" type="typeWE" route="route5" depart="776" />
    <vehicle id="left_377" type="typeWE" route="route1" depart="777" />
    <vehicle id="right_378" type="typeWE" route="route3" depart="777" />
    <vehicle id="right_379" type="typeWE" route="route3" depart="779" />
    <vehicle id="left_380" type="typeWE" route="route1" depart="780" />
    <vehicle id="left_381" type="typeWE" route="route1" depart="781" />
    <vehicle id="right_382" type="typeWE" route="route3" depart="783" />
    <vehicle id="down_383" type="typeNS" route="route2" depart="784" color="1,0,0"/>
    <vehicle id="right_384" type="typeWE" route="route0" depart="785" />
    <vehicle id="right_385" type="typeWE" route="route4" depart="786" />
    <vehicle id="left_386" type="typeWE" route="route1" depart="787" />
    <vehicle id="right_387" type="typeWE" route="route0" depart="788" />
    <vehicle id="down_388" type="typeNS" route="route2" depart="788" color="1,0,0"/>
    <vehicle id="down_389" type="typeNS" route="route2" depart="789" color="1,0,0"/>
    <vehicle id="right_390" type="typeWE" route="route4" depart="791" />
    <vehicle id="right_391" type="typeWE" route="route3" depart="794" />
    <vehicle id="right_392" type="typeWE" route="route3" depart="795" />
    <vehicle id="right_393" type="typeWE" route="route0" depart="806" />
    <vehicle id="down_394" type="typeNS" route="route2" depart="806" color="1,0,0"/>
    <vehicle id="right_395" type="typeWE" route="route5" depart="808" />
    <vehicle id="right_396" type="typeWE" route="route0" depart="811" />