<additional>
<inductionLoop id='1' lane='1i_0' pos='20' freq='10' file='cross.out'/>
<inductionLoop id='2' lane='2i_0' pos='20' freq='10' file='cross.out'/>
<inductionLoop id='3' lane='3i_0' pos='20' freq='10' file='cross.out'/>
<inductionLoop id='4' lane='4i_0' pos='20' freq='10' file='cross.out'/>
</additional>
<!--<e1Detector id="1" lane="2i_0" pos="-10" freq="30" file="cross.out"/>
<e1Detector id="2" lane="3i_0" pos="-10" freq="30" file="cross.out" friendlyPos="x"/>
<e1Detector id="3" lane="4i_0" pos="-10" freq="30" file="cross.out" friendlyPos="x"/>-->