<?xml version="1.0" encoding="UTF-8"?>

<!-- generated on Fri Jul  6 04:53:39 2018 by SUMO netconvert Version 0.32.0
<?xml version="1.0" encoding="UTF-8"?>

<configuration xmlns:xsi="http://www.w3.org/2001/XMLSchema-instance" xsi:noNamespaceSchemaLocation="http://sumo.dlr.de/xsd/netconvertConfiguration.xsd">

    <input>
        <node-files value="mynode.nod.xml"/>
        <edge-files value="my_edge.edg.xml"/>
        <type-files value="my_type.type.xml"/>
    </input>

    <output>
        <output-file value="my_net.net.xml"/>
    </output>

</configuration>
-->

<net version="0.27" xmlns:xsi="http://www.w3.org/2001/XMLSchema-instance" xsi:noNamespaceSchemaLocation="http://sumo.dlr.de/xsd/net_file.xsd">

    <location netOffset="500.00,500.00" convBoundary="0.00,0.00,1000.00,1000.00" origBoundary="-500.00,-500.00,500.00,500.00" projParameter="!"/>

    <type id="1L45" priority="3" numLanes="1" speed="45.00"/>
    <type id="3L45" priority="3" numLanes="3" speed="45.00"/>

    <edge id=":n1_0" function="internal">
        <lane id=":n1_0_0" index="0" speed="45.00" length="4.82" shape="0.00,501.65 -1.24,500.82 -1.65,500.00 -1.24,499.18 0.00,498.35"/>
    </edge>
    <edge id=":n2_0" function="internal">
        <lane id=":n2_0_0" index="0" speed="45.00" length="10.88" shape="491.75,511.35 491.56,507.11 490.98,504.08 490.01,502.26 488.65,501.65"/>
    </edge>
    <edge id=":n2_1" function="internal">
        <lane id=":n2_1_0" index="0" speed="45.00" length="22.98" shape="495.05,511.35 495.57,503.67 496.70,497.57 497.83,492.69 498.35,488.65"/>
    </edge>
    <edge id=":n2_2" function="internal">
        <lane id=":n2_2_0" index="0" speed="45.00" length="10.78" shape="498.35,511.35 499.16,505.66 501.60,501.60 501.85,501.45"/>
    </edge>
    <edge id=":n2_3" function="internal">
        <lane id=":n2_3_0" index="0" speed="45.00" length="2.67" shape="498.35,511.35 499.18,510.11 500.00,509.70 500.23,509.82"/>
    </edge>
    <edge id=":n2_16" function="internal">
        <lane id=":n2_16_0" index="0" speed="45.00" length="10.19" shape="501.85,501.45 505.66,499.16 511.35,498.35"/>
    </edge>
    <edge id=":n2_17" function="internal">
        <lane id=":n2_17_0" index="0" speed="45.00" length="2.15" shape="500.23,509.82 500.82,510.11 501.65,511.35"/>
    </edge>
    <edge id=":n2_4" function="internal">
        <lane id=":n2_4_0" index="0" speed="45.00" length="10.88" shape="511.35,508.25 507.11,508.44 504.08,509.02 502.26,509.99 501.65,511.35"/>
    </edge>
    <edge id=":n2_5" function="internal">
        <lane id=":n2_5_0" index="0" speed="45.00" length="22.98" shape="511.35,504.95 503.67,504.43 497.57,503.30 492.69,502.17 488.65,501.65"/>
    </edge>
    <edge id=":n2_6" function="internal">
        <lane id=":n2_6_0" index="0" speed="45.00" length="10.78" shape="511.35,501.65 505.66,500.84 501.60,498.40 501.45,498.15"/>
    </edge>
    <edge id=":n2_7" function="internal">
        <lane id=":n2_7_0" index="0" speed="45.00" length="2.67" shape="511.35,501.65 510.11,500.82 509.70,500.00 509.82,499.77"/>
    </edge>
    <edge id=":n2_18" function="internal">
        <lane id=":n2_18_0" index="0" speed="45.00" length="10.19" shape="501.45,498.15 499.16,494.34 498.35,488.65"/>
    </edge>
    <edge id=":n2_19" function="internal">
        <lane id=":n2_19_0" index="0" speed="45.00" length="2.15" shape="509.82,499.77 510.11,499.18 511.35,498.35"/>
    </edge>
    <edge id=":n2_8" function="internal">
        <lane id=":n2_8_0" index="0" speed="45.00" length="10.88" shape="508.25,488.65 508.44,492.89 509.02,495.92 509.99,497.74 511.35,498.35"/>
    </edge>
    <edge id=":n2_9" function="internal">
        <lane id=":n2_9_0" index="0" speed="45.00" length="22.98" shape="504.95,488.65 504.43,496.33 503.30,502.43 502.17,507.31 501.65,511.35"/>
    </edge>
    <edge id=":n2_10" function="internal">
        <lane id=":n2_10_0" index="0" speed="45.00" length="10.78" shape="501.65,488.65 500.84,494.34 498.40,498.40 498.15,498.55"/>
    </edge>
    <edge id=":n2_11" function="internal">
        <lane id=":n2_11_0" index="0" speed="45.00" length="2.67" shape="501.65,488.65 500.82,489.89 500.00,490.30 499.77,490.18"/>
    </edge>
    <edge id=":n2_20" function="internal">
        <lane id=":n2_20_0" index="0" speed="45.00" length="10.19" shape="498.15,498.55 494.34,500.84 488.65,501.65"/>
    </edge>
    <edge id=":n2_21" function="internal">
        <lane id=":n2_21_0" index="0" speed="45.00" length="2.15" shape="499.77,490.18 499.18,489.89 498.35,488.65"/>
    </edge>
    <edge id=":n2_12" function="internal">
        <lane id=":n2_12_0" index="0" speed="45.00" length="10.88" shape="488.65,491.75 492.89,491.56 495.92,490.98 497.74,490.01 498.35,488.65"/>
    </edge>
    <edge id=":n2_13" function="internal">
        <lane id=":n2_13_0" index="0" speed="45.00" length="22.98" shape="488.65,495.05 496.33,495.57 502.43,496.70 507.31,497.83 511.35,498.35"/>
    </edge>
    <edge id=":n2_14" function="internal">
        <lane id=":n2_14_0" index="0" speed="45.00" length="10.78" shape="488.65,498.35 494.34,499.16 498.40,501.60 498.55,501.85"/>
    </edge>
    <edge id=":n2_15" function="internal">
        <lane id=":n2_15_0" index="0" speed="45.00" length="2.67" shape="488.65,498.35 489.89,499.18 490.30,500.00 490.18,500.23"/>
    </edge>
    <edge id=":n2_22" function="internal">
        <lane id=":n2_22_0" index="0" speed="45.00" length="10.19" shape="498.55,501.85 500.84,505.66 501.65,511.35"/>
    </edge>
    <edge id=":n2_23" function="internal">
        <lane id=":n2_23_0" index="0" speed="45.00" length="2.15" shape="490.18,500.23 489.89,500.82 488.65,501.65"/>
    </edge>
    <edge id=":n3_0" function="internal">
        <lane id=":n3_0_0" index="0" speed="45.00" length="4.82" shape="501.65,1000.00 500.82,1001.24 500.00,1001.65 499.18,1001.24 498.35,1000.00"/>
    </edge>
    <edge id=":n4_0" function="internal">
        <lane id=":n4_0_0" index="0" speed="45.00" length="4.82" shape="1000.00,498.35 1001.24,499.18 1001.65,500.00 1001.24,500.82 1000.00,501.65"/>
    </edge>
    <edge id=":n5_0" function="internal">
        <lane id=":n5_0_0" index="0" speed="45.00" length="4.82" shape="498.35,0.00 499.18,-1.24 500.00,-1.65 500.82,-1.24 501.65,0.00"/>
    </edge>

    <edge id="1to2" from="n1" to="n2" priority="3" type="3L45">
        <lane id="1to2_0" index="0" speed="45.00" length="488.65" shape="0.00,491.75 488.65,491.75"/>
        <lane id="1to2_1" index="1" speed="45.00" length="488.65" shape="0.00,495.05 488.65,495.05"/>
        <lane id="1to2_2" index="2" speed="45.00" length="488.65" shape="0.00,498.35 488.65,498.35"/>
    </edge>
    <edge id="2to1" from="n2" to="n1" priority="3" type="1L45">
        <lane id="2to1_0" index="0" speed="45.00" length="488.65" shape="488.65,501.65 0.00,501.65"/>
    </edge>
    <edge id="2to3" from="n2" to="n3" priority="3" type="1L45">
        <lane id="2to3_0" index="0" speed="45.00" length="488.65" shape="501.65,511.35 501.65,1000.00"/>
    </edge>
    <edge id="2to4" from="n2" to="n4" priority="3" type="1L45">
        <lane id="2to4_0" index="0" speed="45.00" length="488.65" shape="511.35,498.35 1000.00,498.35"/>
    </edge>
    <edge id="2to5" from="n2" to="n5" priority="3" type="1L45">
        <lane id="2to5_0" index="0" speed="45.00" length="488.65" shape="498.35,488.65 498.35,0.00"/>
    </edge>
    <edge id="3to2" from="n3" to="n2" priority="3" type="3L45">
        <lane id="3to2_0" index="0" speed="45.00" length="488.65" shape="491.75,1000.00 491.75,511.35"/>
        <lane id="3to2_1" index="1" speed="45.00" length="488.65" shape="495.05,1000.00 495.05,511.35"/>
        <lane id="3to2_2" index="2" speed="45.00" length="488.65" shape="498.35,1000.00 498.35,511.35"/>
    </edge>
    <edge id="4to2" from="n4" to="n2" priority="3" type="3L45">
        <lane id="4to2_0" index="0" speed="45.00" length="488.65" shape="1000.00,508.25 511.35,508.25"/>
        <lane id="4to2_1" index="1" speed="45.00" length="488.65" shape="1000.00,504.95 511.35,504.95"/>
        <lane id="4to2_2" index="2" speed="45.00" length="488.65" shape="1000.00,501.65 511.35,501.65"/>
    </edge>
    <edge id="5to2" from="n5" to="n2" priority="3" type="3L45">
        <lane id="5to2_0" index="0" speed="45.00" length="488.65" shape="508.25,0.00 508.25,488.65"/>
        <lane id="5to2_1" index="1" speed="45.00" length="488.65" shape="504.95,0.00 504.95,488.65"/>
        <lane id="5to2_2" index="2" speed="45.00" length="488.65" shape="501.65,0.00 501.65,488.65"/>
    </edge>

    <tlLogic id="n2" type="static" programID="0" offset="0">
        <phase duration="10" state="gggggrrrgrrrgrrr"/>
        <phase duration="10" state="grrrgggggrrrgrrr"/>
        <phase duration="10" state="grrrgrrrgggggrrr"/>
        <phase duration="10" state="grrrgrrrgrrrgggg"/>
        <!--<phase duration="21" state="GGggrrrrGGggrrrr"/>
        <phase duration="9" state="yyggrrrryyggrrrr"/>
        <phase duration="6" state="rrGGrrrrrrGGrrrr"/>
        <phase duration="9" state="rryyrrrrrryyrrrr"/>
        <phase duration="21" state="rrrrGGggrrrrGGgg"/>
        <phase duration="9" state="rrrryyggrrrryygg"/>
        <phase duration="6" state="rrrrrrGGrrrrrrGG"/>
        <phase duration="9" state="rrrrrryyrrrrrryy"/>-->
    </tlLogic>

    <junction id="n1" type="priority" x="0.00" y="500.00" incLanes="2to1_0" intLanes=":n1_0_0" shape="0.00,499.95 0.00,503.25 0.00,500.05">
        <request index="0" response="0" foes="0" cont="0"/>
    </junction>
    <junction id="n2" type="traffic_light" x="500.00" y="500.00" incLanes="3to2_0 3to2_1 3to2_2 4to2_0 4to2_1 4to2_2 5to2_0 5to2_1 5to2_2 1to2_0 1to2_1 1to2_2" intLanes=":n2_0_0 :n2_1_0 :n2_16_0 :n2_17_0 :n2_4_0 :n2_5_0 :n2_18_0 :n2_19_0 :n2_8_0 :n2_9_0 :n2_20_0 :n2_21_0 :n2_12_0 :n2_13_0 :n2_22_0 :n2_23_0" shape="490.15,511.35 503.25,511.35 511.35,509.85 511.35,496.75 509.85,488.65 496.75,488.65 488.65,490.15 488.65,503.25">
        <request index="0" response="0000000000000000" foes="1000010000100000" cont="0"/>
        <request index="1" response="0000000000000000" foes="0111110001100000" cont="0"/>
        <request index="2" response="0000001100000000" foes="0110001111100000" cont="1"/>
        <request index="3" response="0100001000010000" foes="0100001000010000" cont="1"/>
        <request index="4" response="0000001000000000" foes="0100001000001000" cont="0"/>
        <request index="5" response="0000011000000111" foes="1100011000000111" cont="0"/>
        <request index="6" response="0011011000000110" foes="0011111000000110" cont="1"/>
        <request index="7" response="0010000100000100" foes="0010000100000100" cont="1"/>
        <request index="8" response="0000000000000000" foes="0010000010000100" cont="0"/>
        <request index="9" response="0000000000000000" foes="0110000001111100" cont="0"/>
        <request index="10" response="0000000000000011" foes="1110000001100011" cont="1"/>
        <request index="11" response="0001000001000010" foes="0001000001000010" cont="1"/>
        <request index="12" response="0000000000000010" foes="0000100001000010" cont="0"/>
        <request index="13" response="0000011100000110" foes="0000011111000110" cont="0"/>
        <request index="14" response="0000011000110110" foes="0000011000111110" cont="1"/>
        <request index="15" response="0000010000100001" foes="0000010000100001" cont="1"/>
    </junction>
    <junction id="n3" type="priority" x="500.00" y="1000.00" incLanes="2to3_0" intLanes=":n3_0_0" shape="499.95,1000.00 503.25,1000.00 500.05,1000.00">
        <request index="0" response="0" foes="0" cont="0"/>
    </junction>
    <junction id="n4" type="priority" x="1000.00" y="500.00" incLanes="2to4_0" intLanes=":n4_0_0" shape="1000.00,500.05 1000.00,496.75 1000.00,499.95">
        <request index="0" response="0" foes="0" cont="0"/>
    </junction>
    <junction id="n5" type="priority" x="500.00" y="0.00" incLanes="2to5_0" intLanes=":n5_0_0" shape="500.05,0.00 496.75,0.00 499.95,0.00">
        <request index="0" response="0" foes="0" cont="0"/>
    </junction>

    <junction id=":n2_16_0" type="internal" x="501.85" y="501.45" incLanes=":n2_2_0 5to2_0 5to2_1" intLanes=":n2_5_0 :n2_6_0 :n2_7_0 :n2_8_0 :n2_9_0 :n2_13_0 :n2_14_0"/>
    <junction id=":n2_17_0" type="internal" x="500.23" y="509.82" incLanes=":n2_3_0 1to2_2 4to2_0 5to2_1" intLanes=":n2_4_0 :n2_9_0 :n2_14_0"/>
    <junction id=":n2_18_0" type="internal" x="501.45" y="498.15" incLanes=":n2_6_0 1to2_0 1to2_1" intLanes=":n2_1_0 :n2_2_0 :n2_9_0 :n2_10_0 :n2_11_0 :n2_12_0 :n2_13_0"/>
    <junction id=":n2_19_0" type="internal" x="509.82" y="499.77" incLanes=":n2_7_0 1to2_1 3to2_2 5to2_0" intLanes=":n2_2_0 :n2_8_0 :n2_13_0"/>
    <junction id=":n2_20_0" type="internal" x="498.15" y="498.55" incLanes=":n2_10_0 3to2_0 3to2_1" intLanes=":n2_0_0 :n2_1_0 :n2_5_0 :n2_6_0 :n2_13_0 :n2_14_0 :n2_15_0"/>
    <junction id=":n2_21_0" type="internal" x="499.77" y="490.18" incLanes=":n2_11_0 1to2_0 3to2_1 4to2_2" intLanes=":n2_1_0 :n2_6_0 :n2_12_0"/>
    <junction id=":n2_22_0" type="internal" x="498.55" y="501.85" incLanes=":n2_14_0 4to2_0 4to2_1" intLanes=":n2_1_0 :n2_2_0 :n2_3_0 :n2_4_0 :n2_5_0 :n2_9_0 :n2_10_0"/>
    <junction id=":n2_23_0" type="internal" x="490.18" y="500.23" incLanes=":n2_15_0 3to2_0 4to2_1 5to2_2" intLanes=":n2_0_0 :n2_5_0 :n2_10_0"/>

    <connection from="1to2" to="2to5" fromLane="0" toLane="0" via=":n2_12_0" tl="n2" linkIndex="12" dir="r" state="o"/>
    <connection from="1to2" to="2to4" fromLane="1" toLane="0" via=":n2_13_0" tl="n2" linkIndex="13" dir="s" state="o"/>
    <connection from="1to2" to="2to3" fromLane="2" toLane="0" via=":n2_14_0" tl="n2" linkIndex="14" dir="l" state="o"/>
    <connection from="1to2" to="2to1" fromLane="2" toLane="0" via=":n2_15_0" tl="n2" linkIndex="15" dir="t" state="o"/>
    <connection from="2to1" to="1to2" fromLane="0" toLane="2" via=":n1_0_0" dir="t" state="M"/>
    <connection from="2to3" to="3to2" fromLane="0" toLane="2" via=":n3_0_0" dir="t" state="M"/>
    <connection from="2to4" to="4to2" fromLane="0" toLane="2" via=":n4_0_0" dir="t" state="M"/>
    <connection from="2to5" to="5to2" fromLane="0" toLane="2" via=":n5_0_0" dir="t" state="M"/>
    <connection from="3to2" to="2to1" fromLane="0" toLane="0" via=":n2_0_0" tl="n2" linkIndex="0" dir="r" state="o"/>
    <connection from="3to2" to="2to5" fromLane="1" toLane="0" via=":n2_1_0" tl="n2" linkIndex="1" dir="s" state="o"/>
    <connection from="3to2" to="2to4" fromLane="2" toLane="0" via=":n2_2_0" tl="n2" linkIndex="2" dir="l" state="o"/>
    <connection from="3to2" to="2to3" fromLane="2" toLane="0" via=":n2_3_0" tl="n2" linkIndex="3" dir="t" state="o"/>
    <connection from="4to2" to="2to3" fromLane="0" toLane="0" via=":n2_4_0" tl="n2" linkIndex="4" dir="r" state="o"/>
    <connection from="4to2" to="2to1" fromLane="1" toLane="0" via=":n2_5_0" tl="n2" linkIndex="5" dir="s" state="o"/>
    <connection from="4to2" to="2to5" fromLane="2" toLane="0" via=":n2_6_0" tl="n2" linkIndex="6" dir="l" state="o"/>
    <connection from="4to2" to="2to4" fromLane="2" toLane="0" via=":n2_7_0" tl="n2" linkIndex="7" dir="t" state="o"/>
    <connection from="5to2" to="2to4" fromLane="0" toLane="0" via=":n2_8_0" tl="n2" linkIndex="8" dir="r" state="o"/>
    <connection from="5to2" to="2to3" fromLane="1" toLane="0" via=":n2_9_0" tl="n2" linkIndex="9" dir="s" state="o"/>
    <connection from="5to2" to="2to1" fromLane="2" toLane="0" via=":n2_10_0" tl="n2" linkIndex="10" dir="l" state="o"/>
    <connection from="5to2" to="2to5" fromLane="2" toLane="0" via=":n2_11_0" tl="n2" linkIndex="11" dir="t" state="o"/>

    <connection from=":n1_0" to="1to2" fromLane="0" toLane="2" dir="t" state="M"/>
    <connection from=":n2_0" to="2to1" fromLane="0" toLane="0" dir="r" state="M"/>
    <connection from=":n2_1" to="2to5" fromLane="0" toLane="0" dir="s" state="M"/>
    <connection from=":n2_2" to="2to4" fromLane="0" toLane="0" via=":n2_16_0" dir="l" state="m"/>
    <connection from=":n2_16" to="2to4" fromLane="0" toLane="0" dir="l" state="M"/>
    <connection from=":n2_3" to="2to3" fromLane="0" toLane="0" via=":n2_17_0" dir="t" state="m"/>
    <connection from=":n2_17" to="2to3" fromLane="0" toLane="0" dir="t" state="M"/>
    <connection from=":n2_4" to="2to3" fromLane="0" toLane="0" dir="r" state="M"/>
    <connection from=":n2_5" to="2to1" fromLane="0" toLane="0" dir="s" state="M"/>
    <connection from=":n2_6" to="2to5" fromLane="0" toLane="0" via=":n2_18_0" dir="l" state="m"/>
    <connection from=":n2_18" to="2to5" fromLane="0" toLane="0" dir="l" state="M"/>
    <connection from=":n2_7" to="2to4" fromLane="0" toLane="0" via=":n2_19_0" dir="t" state="m"/>
    <connection from=":n2_19" to="2to4" fromLane="0" toLane="0" dir="t" state="M"/>
    <connection from=":n2_8" to="2to4" fromLane="0" toLane="0" dir="r" state="M"/>
    <connection from=":n2_9" to="2to3" fromLane="0" toLane="0" dir="s" state="M"/>
    <connection from=":n2_10" to="2to1" fromLane="0" toLane="0" via=":n2_20_0" dir="l" state="m"/>
    <connection from=":n2_20" to="2to1" fromLane="0" toLane="0" dir="l" state="M"/>
    <connection from=":n2_11" to="2to5" fromLane="0" toLane="0" via=":n2_21_0" dir="t" state="m"/>
    <connection from=":n2_21" to="2to5" fromLane="0" toLane="0" dir="t" state="M"/>
    <connection from=":n2_12" to="2to5" fromLane="0" toLane="0" dir="r" state="M"/>
    <connection from=":n2_13" to="2to4" fromLane="0" toLane="0" dir="s" state="M"/>
    <connection from=":n2_14" to="2to3" fromLane="0" toLane="0" via=":n2_22_0" dir="l" state="m"/>
    <connection from=":n2_22" to="2to3" fromLane="0" toLane="0" dir="l" state="M"/>
    <connection from=":n2_15" to="2to1" fromLane="0" toLane="0" via=":n2_23_0" dir="t" state="m"/>
    <connection from=":n2_23" to="2to1" fromLane="0" toLane="0" dir="t" state="M"/>
    <connection from=":n3_0" to="3to2" fromLane="0" toLane="2" dir="t" state="M"/>
    <connection from=":n4_0" to="4to2" fromLane="0" toLane="2" dir="t" state="M"/>
    <connection from=":n5_0" to="5to2" fromLane="0" toLane="2" dir="t" state="M"/>

</net>
