<?xml version="1.0" encoding="UTF-8"?>
<configuration>

 <input>
 <net-file value="my_net.net.xml"/> 
<route-files value="my_route.rou.xml"/> 
<additional-files value="detects.det.xml"/>
</input>
 <time> 
<begin value="0"/> <end value="2000"/> 
</time> 

</configuration>
